65
Coordinates from ORCA-job optfreq
  O   -5.65775651544685      0.81759021734294      1.07192763423329
  O   -4.31787669592264     -0.76643509035008     -0.04415559211286
  O   -8.40854720283572     -2.01579146666785     -0.13360757560330
  O   -8.52195912641162      0.59895366070346     -1.19323524275828
  O   -5.79870000556065     -2.85202444583040      0.87631859607941
  O   -5.60354876842089      3.35771857689719     -0.22752946923162
  O   -2.55540465374393     -2.72396984768901     -0.02766711901501
  O   1.07866315265395      3.59527735302190     -1.73946236074314
  O   2.37263977284004      1.71755824046766     -1.77386329634403
  O   4.70482867931196     -1.98074723609433     -2.43886366428338
  O   6.79874658576229     -1.15363542684262     -2.38489437833312
  O   9.34805455280847     -0.49496181586943      0.84517568823890
  O   8.38490853387613      1.41504375510955      1.54936752036054
  N   1.00980251875070      0.68422816144751      0.35424935955636
  N   7.04872021706524     -1.68103513374112      0.33078434085147
  C   -7.24920592736300     -1.19012664043584     -0.15927746411295
  C   -7.71560567605163      0.25809902885023     -0.07637767129101
  C   -6.30101308000606     -1.52913277902484      0.99108313451538
  C   -6.48350127035028      1.16478775199881     -0.06156325650992
  C   -5.17607907642359     -0.49070834972935      1.07660443980211
  C   0.96110632252744      2.13179778577076      0.17468640137795
  C   -0.50717061188760      2.51841600828772      0.37248082245473
  C   -1.22637809148851      1.20288417701349      0.25229373531776
  C   -0.30534682769590      0.15840211120453      0.24048954603794
  C   -6.80202920706130      2.63842187425631      0.04907053765855
  C   -2.99635309521176     -0.40580524540527      0.07000069143908
  C   -2.58601670251075      0.92112686014555      0.16218412470123
  C   -0.69221129542415     -1.17771801958972      0.14150854998375
  C   -2.05397840176854     -1.45472891477358      0.06009348087882
  C   2.11609367217725     -0.03681508602587      0.39397098530604
  C   1.54837819819469      2.53179664561536     -1.34979724576307
  C   3.41512428530336      0.47162929813647      0.59957901193462
  C   4.56191198805826     -0.28360993171447      0.61692943944365
  C   4.60539562397677     -1.78115712224205      0.38700029760913
  C   5.88254286854110     -2.17975861722345     -0.37462242313761
  C   5.82845765974357      0.32381886943014      0.88053937017570
  C   6.99735828234055     -0.37243723916453      0.75878575290591
  C   5.87450415347919     -1.68949074530068     -1.83700170841759
  C   8.28028276397750      0.30156420943766      1.10198634013594
  H   -6.71640316475898     -1.32363683597002     -1.11161191788289
  H   -8.27952095453253      0.39361652216034      0.85970043503510
  H   -6.86852455940610     -1.49497711345737      1.92582686354704
  H   -5.91554256914218      1.01045814975375     -0.98507183385663
  H   -4.60114846485661     -0.59817344133002      1.99928301166751
  H   1.64367001116303      2.62722854967161      0.86479918409914
  H   -0.78716942370284      3.24446873852523     -0.39263806254275
  H   -0.68976726607822      2.97691082527330      1.35189631593806
  H   -7.58869916560008      2.87257625694174     -0.67685445436708
  H   -7.17352150299547      2.85304678035757      1.06093870010446
  H   -3.33088982691098      1.70970367448995      0.16093149814490
  H   0.02571318419542     -1.99211575139908      0.12563238629866
  H   -8.10423670316799     -2.93205421425344     -0.10942610353102
  H   -9.16896428690588     -0.11121980605573     -1.29457452533566
  H   -5.02030074182318     -2.81624385088760      0.29974147991230
  H   1.97006883820158     -1.10677320556530      0.31735739439900
  H   3.52773707066005      1.54084939635661      0.72627790106527
  H   -5.79021364722236      4.30122503125079     -0.18016896833928
  H   3.74417277051480     -2.14521481192017     -0.16921650555401
  H   4.62145578930940     -2.29517138373176      1.35576304386939
  H   5.93788219476333     -3.27282901943802     -0.41117369739362
  H   5.88732120027698      1.35856700736741      1.19361294787078
  H   -1.83536932159578     -3.36476662320564     -0.01936193589209
  H   7.94534639492675     -1.96734483059610     -0.03619407650055
  H   4.72941412076244     -1.61759925253697     -3.33838915142642
  H   10.14555242412239      0.00644377677619      1.07142873732898
